BEGIN options
  SAVE_FLOWS
END options

BEGIN dimensions
  MAXBOUND  8800
END dimensions

BEGIN period  1
  1 1 1       1.00000000
  1 1 80       0.00000000
  1 2 1       1.00000000
  1 2 80       0.00000000
  1 3 1       1.00000000
  1 3 80       0.00000000
  1 4 1       1.00000000
  1 4 80       0.00000000
  1 5 1       1.00000000
  1 5 80       0.00000000
  1 6 1       1.00000000
  1 6 80       0.00000000
  1 7 1       1.00000000
  1 7 80       0.00000000
  1 8 1       1.00000000
  1 8 80       0.00000000
  1 9 1       1.00000000
  1 9 80       0.00000000
  1 10 1       1.00000000
  1 10 80       0.00000000
  1 11 1       1.00000000
  1 11 80       0.00000000
  1 12 1       1.00000000
  1 12 80       0.00000000
  1 13 1       1.00000000
  1 13 80       0.00000000
  1 14 1       1.00000000
  1 14 80       0.00000000
  1 15 1       1.00000000
  1 15 80       0.00000000
  1 16 1       1.00000000
  1 16 80       0.00000000
  1 17 1       1.00000000
  1 17 80       0.00000000
  1 18 1       1.00000000
  1 18 80       0.00000000
  1 19 1       1.00000000
  1 19 80       0.00000000
  1 20 1       1.00000000
  1 20 80       0.00000000
  1 21 1       1.00000000
  1 21 80       0.00000000
  1 22 1       1.00000000
  1 22 80       0.00000000
  1 23 1       1.00000000
  1 23 80       0.00000000
  1 24 1       1.00000000
  1 24 80       0.00000000
  1 25 1       1.00000000
  1 25 80       0.00000000
  1 26 1       1.00000000
  1 26 80       0.00000000
  1 27 1       1.00000000
  1 27 80       0.00000000
  1 28 1       1.00000000
  1 28 80       0.00000000
  1 29 1       1.00000000
  1 29 80       0.00000000
  1 30 1       1.00000000
  1 30 80       0.00000000
  1 31 1       1.00000000
  1 31 80       0.00000000
  1 32 1       1.00000000
  1 32 80       0.00000000
  1 33 1       1.00000000
  1 33 80       0.00000000
  1 34 1       1.00000000
  1 34 80       0.00000000
  1 35 1       1.00000000
  1 35 80       0.00000000
  1 36 1       1.00000000
  1 36 80       0.00000000
  1 37 1       1.00000000
  1 37 80       0.00000000
  1 38 1       1.00000000
  1 38 80       0.00000000
  1 39 1       1.00000000
  1 39 80       0.00000000
  1 40 1       1.00000000
  1 40 80       0.00000000
  2 1 1       1.00000000
  2 1 80       0.00000000
  2 2 1       1.00000000
  2 2 80       0.00000000
  2 3 1       1.00000000
  2 3 80       0.00000000
  2 4 1       1.00000000
  2 4 80       0.00000000
  2 5 1       1.00000000
  2 5 80       0.00000000
  2 6 1       1.00000000
  2 6 80       0.00000000
  2 7 1       1.00000000
  2 7 80       0.00000000
  2 8 1       1.00000000
  2 8 80       0.00000000
  2 9 1       1.00000000
  2 9 80       0.00000000
  2 10 1       1.00000000
  2 10 80       0.00000000
  2 11 1       1.00000000
  2 11 80       0.00000000
  2 12 1       1.00000000
  2 12 80       0.00000000
  2 13 1       1.00000000
  2 13 80       0.00000000
  2 14 1       1.00000000
  2 14 80       0.00000000
  2 15 1       1.00000000
  2 15 80       0.00000000
  2 16 1       1.00000000
  2 16 80       0.00000000
  2 17 1       1.00000000
  2 17 80       0.00000000
  2 18 1       1.00000000
  2 18 80       0.00000000
  2 19 1       1.00000000
  2 19 80       0.00000000
  2 20 1       1.00000000
  2 20 80       0.00000000
  2 21 1       1.00000000
  2 21 80       0.00000000
  2 22 1       1.00000000
  2 22 80       0.00000000
  2 23 1       1.00000000
  2 23 80       0.00000000
  2 24 1       1.00000000
  2 24 80       0.00000000
  2 25 1       1.00000000
  2 25 80       0.00000000
  2 26 1       1.00000000
  2 26 80       0.00000000
  2 27 1       1.00000000
  2 27 80       0.00000000
  2 28 1       1.00000000
  2 28 80       0.00000000
  2 29 1       1.00000000
  2 29 80       0.00000000
  2 30 1       1.00000000
  2 30 80       0.00000000
  2 31 1       1.00000000
  2 31 80       0.00000000
  2 32 1       1.00000000
  2 32 80       0.00000000
  2 33 1       1.00000000
  2 33 80       0.00000000
  2 34 1       1.00000000
  2 34 80       0.00000000
  2 35 1       1.00000000
  2 35 80       0.00000000
  2 36 1       1.00000000
  2 36 80       0.00000000
  2 37 1       1.00000000
  2 37 80       0.00000000
  2 38 1       1.00000000
  2 38 80       0.00000000
  2 39 1       1.00000000
  2 39 80       0.00000000
  2 40 1       1.00000000
  2 40 80       0.00000000
  3 1 1       1.00000000
  3 1 80       0.00000000
  3 2 1       1.00000000
  3 2 80       0.00000000
  3 3 1       1.00000000
  3 3 80       0.00000000
  3 4 1       1.00000000
  3 4 80       0.00000000
  3 5 1       1.00000000
  3 5 80       0.00000000
  3 6 1       1.00000000
  3 6 80       0.00000000
  3 7 1       1.00000000
  3 7 80       0.00000000
  3 8 1       1.00000000
  3 8 80       0.00000000
  3 9 1       1.00000000
  3 9 80       0.00000000
  3 10 1       1.00000000
  3 10 80       0.00000000
  3 11 1       1.00000000
  3 11 80       0.00000000
  3 12 1       1.00000000
  3 12 80       0.00000000
  3 13 1       1.00000000
  3 13 80       0.00000000
  3 14 1       1.00000000
  3 14 80       0.00000000
  3 15 1       1.00000000
  3 15 80       0.00000000
  3 16 1       1.00000000
  3 16 80       0.00000000
  3 17 1       1.00000000
  3 17 80       0.00000000
  3 18 1       1.00000000
  3 18 80       0.00000000
  3 19 1       1.00000000
  3 19 80       0.00000000
  3 20 1       1.00000000
  3 20 80       0.00000000
  3 21 1       1.00000000
  3 21 80       0.00000000
  3 22 1       1.00000000
  3 22 80       0.00000000
  3 23 1       1.00000000
  3 23 80       0.00000000
  3 24 1       1.00000000
  3 24 80       0.00000000
  3 25 1       1.00000000
  3 25 80       0.00000000
  3 26 1       1.00000000
  3 26 80       0.00000000
  3 27 1       1.00000000
  3 27 80       0.00000000
  3 28 1       1.00000000
  3 28 80       0.00000000
  3 29 1       1.00000000
  3 29 80       0.00000000
  3 30 1       1.00000000
  3 30 80       0.00000000
  3 31 1       1.00000000
  3 31 80       0.00000000
  3 32 1       1.00000000
  3 32 80       0.00000000
  3 33 1       1.00000000
  3 33 80       0.00000000
  3 34 1       1.00000000
  3 34 80       0.00000000
  3 35 1       1.00000000
  3 35 80       0.00000000
  3 36 1       1.00000000
  3 36 80       0.00000000
  3 37 1       1.00000000
  3 37 80       0.00000000
  3 38 1       1.00000000
  3 38 80       0.00000000
  3 39 1       1.00000000
  3 39 80       0.00000000
  3 40 1       1.00000000
  3 40 80       0.00000000
  4 1 1       1.00000000
  4 1 80       0.00000000
  4 2 1       1.00000000
  4 2 80       0.00000000
  4 3 1       1.00000000
  4 3 80       0.00000000
  4 4 1       1.00000000
  4 4 80       0.00000000
  4 5 1       1.00000000
  4 5 80       0.00000000
  4 6 1       1.00000000
  4 6 80       0.00000000
  4 7 1       1.00000000
  4 7 80       0.00000000
  4 8 1       1.00000000
  4 8 80       0.00000000
  4 9 1       1.00000000
  4 9 80       0.00000000
  4 10 1       1.00000000
  4 10 80       0.00000000
  4 11 1       1.00000000
  4 11 80       0.00000000
  4 12 1       1.00000000
  4 12 80       0.00000000
  4 13 1       1.00000000
  4 13 80       0.00000000
  4 14 1       1.00000000
  4 14 80       0.00000000
  4 15 1       1.00000000
  4 15 80       0.00000000
  4 16 1       1.00000000
  4 16 80       0.00000000
  4 17 1       1.00000000
  4 17 80       0.00000000
  4 18 1       1.00000000
  4 18 80       0.00000000
  4 19 1       1.00000000
  4 19 80       0.00000000
  4 20 1       1.00000000
  4 20 80       0.00000000
  4 21 1       1.00000000
  4 21 80       0.00000000
  4 22 1       1.00000000
  4 22 80       0.00000000
  4 23 1       1.00000000
  4 23 80       0.00000000
  4 24 1       1.00000000
  4 24 80       0.00000000
  4 25 1       1.00000000
  4 25 80       0.00000000
  4 26 1       1.00000000
  4 26 80       0.00000000
  4 27 1       1.00000000
  4 27 80       0.00000000
  4 28 1       1.00000000
  4 28 80       0.00000000
  4 29 1       1.00000000
  4 29 80       0.00000000
  4 30 1       1.00000000
  4 30 80       0.00000000
  4 31 1       1.00000000
  4 31 80       0.00000000
  4 32 1       1.00000000
  4 32 80       0.00000000
  4 33 1       1.00000000
  4 33 80       0.00000000
  4 34 1       1.00000000
  4 34 80       0.00000000
  4 35 1       1.00000000
  4 35 80       0.00000000
  4 36 1       1.00000000
  4 36 80       0.00000000
  4 37 1       1.00000000
  4 37 80       0.00000000
  4 38 1       1.00000000
  4 38 80       0.00000000
  4 39 1       1.00000000
  4 39 80       0.00000000
  4 40 1       1.00000000
  4 40 80       0.00000000
  5 1 1       1.00000000
  5 1 80       0.00000000
  5 2 1       1.00000000
  5 2 80       0.00000000
  5 3 1       1.00000000
  5 3 80       0.00000000
  5 4 1       1.00000000
  5 4 80       0.00000000
  5 5 1       1.00000000
  5 5 80       0.00000000
  5 6 1       1.00000000
  5 6 80       0.00000000
  5 7 1       1.00000000
  5 7 80       0.00000000
  5 8 1       1.00000000
  5 8 80       0.00000000
  5 9 1       1.00000000
  5 9 80       0.00000000
  5 10 1       1.00000000
  5 10 80       0.00000000
  5 11 1       1.00000000
  5 11 80       0.00000000
  5 12 1       1.00000000
  5 12 80       0.00000000
  5 13 1       1.00000000
  5 13 80       0.00000000
  5 14 1       1.00000000
  5 14 80       0.00000000
  5 15 1       1.00000000
  5 15 80       0.00000000
  5 16 1       1.00000000
  5 16 80       0.00000000
  5 17 1       1.00000000
  5 17 80       0.00000000
  5 18 1       1.00000000
  5 18 80       0.00000000
  5 19 1       1.00000000
  5 19 80       0.00000000
  5 20 1       1.00000000
  5 20 80       0.00000000
  5 21 1       1.00000000
  5 21 80       0.00000000
  5 22 1       1.00000000
  5 22 80       0.00000000
  5 23 1       1.00000000
  5 23 80       0.00000000
  5 24 1       1.00000000
  5 24 80       0.00000000
  5 25 1       1.00000000
  5 25 80       0.00000000
  5 26 1       1.00000000
  5 26 80       0.00000000
  5 27 1       1.00000000
  5 27 80       0.00000000
  5 28 1       1.00000000
  5 28 80       0.00000000
  5 29 1       1.00000000
  5 29 80       0.00000000
  5 30 1       1.00000000
  5 30 80       0.00000000
  5 31 1       1.00000000
  5 31 80       0.00000000
  5 32 1       1.00000000
  5 32 80       0.00000000
  5 33 1       1.00000000
  5 33 80       0.00000000
  5 34 1       1.00000000
  5 34 80       0.00000000
  5 35 1       1.00000000
  5 35 80       0.00000000
  5 36 1       1.00000000
  5 36 80       0.00000000
  5 37 1       1.00000000
  5 37 80       0.00000000
  5 38 1       1.00000000
  5 38 80       0.00000000
  5 39 1       1.00000000
  5 39 80       0.00000000
  5 40 1       1.00000000
  5 40 80       0.00000000
  6 1 1       1.00000000
  6 1 80       0.00000000
  6 2 1       1.00000000
  6 2 80       0.00000000
  6 3 1       1.00000000
  6 3 80       0.00000000
  6 4 1       1.00000000
  6 4 80       0.00000000
  6 5 1       1.00000000
  6 5 80       0.00000000
  6 6 1       1.00000000
  6 6 80       0.00000000
  6 7 1       1.00000000
  6 7 80       0.00000000
  6 8 1       1.00000000
  6 8 80       0.00000000
  6 9 1       1.00000000
  6 9 80       0.00000000
  6 10 1       1.00000000
  6 10 80       0.00000000
  6 11 1       1.00000000
  6 11 80       0.00000000
  6 12 1       1.00000000
  6 12 80       0.00000000
  6 13 1       1.00000000
  6 13 80       0.00000000
  6 14 1       1.00000000
  6 14 80       0.00000000
  6 15 1       1.00000000
  6 15 80       0.00000000
  6 16 1       1.00000000
  6 16 80       0.00000000
  6 17 1       1.00000000
  6 17 80       0.00000000
  6 18 1       1.00000000
  6 18 80       0.00000000
  6 19 1       1.00000000
  6 19 80       0.00000000
  6 20 1       1.00000000
  6 20 80       0.00000000
  6 21 1       1.00000000
  6 21 80       0.00000000
  6 22 1       1.00000000
  6 22 80       0.00000000
  6 23 1       1.00000000
  6 23 80       0.00000000
  6 24 1       1.00000000
  6 24 80       0.00000000
  6 25 1       1.00000000
  6 25 80       0.00000000
  6 26 1       1.00000000
  6 26 80       0.00000000
  6 27 1       1.00000000
  6 27 80       0.00000000
  6 28 1       1.00000000
  6 28 80       0.00000000
  6 29 1       1.00000000
  6 29 80       0.00000000
  6 30 1       1.00000000
  6 30 80       0.00000000
  6 31 1       1.00000000
  6 31 80       0.00000000
  6 32 1       1.00000000
  6 32 80       0.00000000
  6 33 1       1.00000000
  6 33 80       0.00000000
  6 34 1       1.00000000
  6 34 80       0.00000000
  6 35 1       1.00000000
  6 35 80       0.00000000
  6 36 1       1.00000000
  6 36 80       0.00000000
  6 37 1       1.00000000
  6 37 80       0.00000000
  6 38 1       1.00000000
  6 38 80       0.00000000
  6 39 1       1.00000000
  6 39 80       0.00000000
  6 40 1       1.00000000
  6 40 80       0.00000000
  7 1 1       1.00000000
  7 1 80       0.00000000
  7 2 1       1.00000000
  7 2 80       0.00000000
  7 3 1       1.00000000
  7 3 80       0.00000000
  7 4 1       1.00000000
  7 4 80       0.00000000
  7 5 1       1.00000000
  7 5 80       0.00000000
  7 6 1       1.00000000
  7 6 80       0.00000000
  7 7 1       1.00000000
  7 7 80       0.00000000
  7 8 1       1.00000000
  7 8 80       0.00000000
  7 9 1       1.00000000
  7 9 80       0.00000000
  7 10 1       1.00000000
  7 10 80       0.00000000
  7 11 1       1.00000000
  7 11 80       0.00000000
  7 12 1       1.00000000
  7 12 80       0.00000000
  7 13 1       1.00000000
  7 13 80       0.00000000
  7 14 1       1.00000000
  7 14 80       0.00000000
  7 15 1       1.00000000
  7 15 80       0.00000000
  7 16 1       1.00000000
  7 16 80       0.00000000
  7 17 1       1.00000000
  7 17 80       0.00000000
  7 18 1       1.00000000
  7 18 80       0.00000000
  7 19 1       1.00000000
  7 19 80       0.00000000
  7 20 1       1.00000000
  7 20 80       0.00000000
  7 21 1       1.00000000
  7 21 80       0.00000000
  7 22 1       1.00000000
  7 22 80       0.00000000
  7 23 1       1.00000000
  7 23 80       0.00000000
  7 24 1       1.00000000
  7 24 80       0.00000000
  7 25 1       1.00000000
  7 25 80       0.00000000
  7 26 1       1.00000000
  7 26 80       0.00000000
  7 27 1       1.00000000
  7 27 80       0.00000000
  7 28 1       1.00000000
  7 28 80       0.00000000
  7 29 1       1.00000000
  7 29 80       0.00000000
  7 30 1       1.00000000
  7 30 80       0.00000000
  7 31 1       1.00000000
  7 31 80       0.00000000
  7 32 1       1.00000000
  7 32 80       0.00000000
  7 33 1       1.00000000
  7 33 80       0.00000000
  7 34 1       1.00000000
  7 34 80       0.00000000
  7 35 1       1.00000000
  7 35 80       0.00000000
  7 36 1       1.00000000
  7 36 80       0.00000000
  7 37 1       1.00000000
  7 37 80       0.00000000
  7 38 1       1.00000000
  7 38 80       0.00000000
  7 39 1       1.00000000
  7 39 80       0.00000000
  7 40 1       1.00000000
  7 40 80       0.00000000
  8 1 1       1.00000000
  8 1 80       0.00000000
  8 2 1       1.00000000
  8 2 80       0.00000000
  8 3 1       1.00000000
  8 3 80       0.00000000
  8 4 1       1.00000000
  8 4 80       0.00000000
  8 5 1       1.00000000
  8 5 80       0.00000000
  8 6 1       1.00000000
  8 6 80       0.00000000
  8 7 1       1.00000000
  8 7 80       0.00000000
  8 8 1       1.00000000
  8 8 80       0.00000000
  8 9 1       1.00000000
  8 9 80       0.00000000
  8 10 1       1.00000000
  8 10 80       0.00000000
  8 11 1       1.00000000
  8 11 80       0.00000000
  8 12 1       1.00000000
  8 12 80       0.00000000
  8 13 1       1.00000000
  8 13 80       0.00000000
  8 14 1       1.00000000
  8 14 80       0.00000000
  8 15 1       1.00000000
  8 15 80       0.00000000
  8 16 1       1.00000000
  8 16 80       0.00000000
  8 17 1       1.00000000
  8 17 80       0.00000000
  8 18 1       1.00000000
  8 18 80       0.00000000
  8 19 1       1.00000000
  8 19 80       0.00000000
  8 20 1       1.00000000
  8 20 80       0.00000000
  8 21 1       1.00000000
  8 21 80       0.00000000
  8 22 1       1.00000000
  8 22 80       0.00000000
  8 23 1       1.00000000
  8 23 80       0.00000000
  8 24 1       1.00000000
  8 24 80       0.00000000
  8 25 1       1.00000000
  8 25 80       0.00000000
  8 26 1       1.00000000
  8 26 80       0.00000000
  8 27 1       1.00000000
  8 27 80       0.00000000
  8 28 1       1.00000000
  8 28 80       0.00000000
  8 29 1       1.00000000
  8 29 80       0.00000000
  8 30 1       1.00000000
  8 30 80       0.00000000
  8 31 1       1.00000000
  8 31 80       0.00000000
  8 32 1       1.00000000
  8 32 80       0.00000000
  8 33 1       1.00000000
  8 33 80       0.00000000
  8 34 1       1.00000000
  8 34 80       0.00000000
  8 35 1       1.00000000
  8 35 80       0.00000000
  8 36 1       1.00000000
  8 36 80       0.00000000
  8 37 1       1.00000000
  8 37 80       0.00000000
  8 38 1       1.00000000
  8 38 80       0.00000000
  8 39 1       1.00000000
  8 39 80       0.00000000
  8 40 1       1.00000000
  8 40 80       0.00000000
  9 1 1       1.00000000
  9 1 80       0.00000000
  9 2 1       1.00000000
  9 2 80       0.00000000
  9 3 1       1.00000000
  9 3 80       0.00000000
  9 4 1       1.00000000
  9 4 80       0.00000000
  9 5 1       1.00000000
  9 5 80       0.00000000
  9 6 1       1.00000000
  9 6 80       0.00000000
  9 7 1       1.00000000
  9 7 80       0.00000000
  9 8 1       1.00000000
  9 8 80       0.00000000
  9 9 1       1.00000000
  9 9 80       0.00000000
  9 10 1       1.00000000
  9 10 80       0.00000000
  9 11 1       1.00000000
  9 11 80       0.00000000
  9 12 1       1.00000000
  9 12 80       0.00000000
  9 13 1       1.00000000
  9 13 80       0.00000000
  9 14 1       1.00000000
  9 14 80       0.00000000
  9 15 1       1.00000000
  9 15 80       0.00000000
  9 16 1       1.00000000
  9 16 80       0.00000000
  9 17 1       1.00000000
  9 17 80       0.00000000
  9 18 1       1.00000000
  9 18 80       0.00000000
  9 19 1       1.00000000
  9 19 80       0.00000000
  9 20 1       1.00000000
  9 20 80       0.00000000
  9 21 1       1.00000000
  9 21 80       0.00000000
  9 22 1       1.00000000
  9 22 80       0.00000000
  9 23 1       1.00000000
  9 23 80       0.00000000
  9 24 1       1.00000000
  9 24 80       0.00000000
  9 25 1       1.00000000
  9 25 80       0.00000000
  9 26 1       1.00000000
  9 26 80       0.00000000
  9 27 1       1.00000000
  9 27 80       0.00000000
  9 28 1       1.00000000
  9 28 80       0.00000000
  9 29 1       1.00000000
  9 29 80       0.00000000
  9 30 1       1.00000000
  9 30 80       0.00000000
  9 31 1       1.00000000
  9 31 80       0.00000000
  9 32 1       1.00000000
  9 32 80       0.00000000
  9 33 1       1.00000000
  9 33 80       0.00000000
  9 34 1       1.00000000
  9 34 80       0.00000000
  9 35 1       1.00000000
  9 35 80       0.00000000
  9 36 1       1.00000000
  9 36 80       0.00000000
  9 37 1       1.00000000
  9 37 80       0.00000000
  9 38 1       1.00000000
  9 38 80       0.00000000
  9 39 1       1.00000000
  9 39 80       0.00000000
  9 40 1       1.00000000
  9 40 80       0.00000000
  10 1 1       1.00000000
  10 1 80       0.00000000
  10 2 1       1.00000000
  10 2 80       0.00000000
  10 3 1       1.00000000
  10 3 80       0.00000000
  10 4 1       1.00000000
  10 4 80       0.00000000
  10 5 1       1.00000000
  10 5 80       0.00000000
  10 6 1       1.00000000
  10 6 80       0.00000000
  10 7 1       1.00000000
  10 7 80       0.00000000
  10 8 1       1.00000000
  10 8 80       0.00000000
  10 9 1       1.00000000
  10 9 80       0.00000000
  10 10 1       1.00000000
  10 10 80       0.00000000
  10 11 1       1.00000000
  10 11 80       0.00000000
  10 12 1       1.00000000
  10 12 80       0.00000000
  10 13 1       1.00000000
  10 13 80       0.00000000
  10 14 1       1.00000000
  10 14 80       0.00000000
  10 15 1       1.00000000
  10 15 80       0.00000000
  10 16 1       1.00000000
  10 16 80       0.00000000
  10 17 1       1.00000000
  10 17 80       0.00000000
  10 18 1       1.00000000
  10 18 80       0.00000000
  10 19 1       1.00000000
  10 19 80       0.00000000
  10 20 1       1.00000000
  10 20 80       0.00000000
  10 21 1       1.00000000
  10 21 80       0.00000000
  10 22 1       1.00000000
  10 22 80       0.00000000
  10 23 1       1.00000000
  10 23 80       0.00000000
  10 24 1       1.00000000
  10 24 80       0.00000000
  10 25 1       1.00000000
  10 25 80       0.00000000
  10 26 1       1.00000000
  10 26 80       0.00000000
  10 27 1       1.00000000
  10 27 80       0.00000000
  10 28 1       1.00000000
  10 28 80       0.00000000
  10 29 1       1.00000000
  10 29 80       0.00000000
  10 30 1       1.00000000
  10 30 80       0.00000000
  10 31 1       1.00000000
  10 31 80       0.00000000
  10 32 1       1.00000000
  10 32 80       0.00000000
  10 33 1       1.00000000
  10 33 80       0.00000000
  10 34 1       1.00000000
  10 34 80       0.00000000
  10 35 1       1.00000000
  10 35 80       0.00000000
  10 36 1       1.00000000
  10 36 80       0.00000000
  10 37 1       1.00000000
  10 37 80       0.00000000
  10 38 1       1.00000000
  10 38 80       0.00000000
  10 39 1       1.00000000
  10 39 80       0.00000000
  10 40 1       1.00000000
  10 40 80       0.00000000
  11 1 1       1.00000000
  11 1 80       0.00000000
  11 2 1       1.00000000
  11 2 80       0.00000000
  11 3 1       1.00000000
  11 3 80       0.00000000
  11 4 1       1.00000000
  11 4 80       0.00000000
  11 5 1       1.00000000
  11 5 80       0.00000000
  11 6 1       1.00000000
  11 6 80       0.00000000
  11 7 1       1.00000000
  11 7 80       0.00000000
  11 8 1       1.00000000
  11 8 80       0.00000000
  11 9 1       1.00000000
  11 9 80       0.00000000
  11 10 1       1.00000000
  11 10 80       0.00000000
  11 11 1       1.00000000
  11 11 80       0.00000000
  11 12 1       1.00000000
  11 12 80       0.00000000
  11 13 1       1.00000000
  11 13 80       0.00000000
  11 14 1       1.00000000
  11 14 80       0.00000000
  11 15 1       1.00000000
  11 15 80       0.00000000
  11 16 1       1.00000000
  11 16 80       0.00000000
  11 17 1       1.00000000
  11 17 80       0.00000000
  11 18 1       1.00000000
  11 18 80       0.00000000
  11 19 1       1.00000000
  11 19 80       0.00000000
  11 20 1       1.00000000
  11 20 80       0.00000000
  11 21 1       1.00000000
  11 21 80       0.00000000
  11 22 1       1.00000000
  11 22 80       0.00000000
  11 23 1       1.00000000
  11 23 80       0.00000000
  11 24 1       1.00000000
  11 24 80       0.00000000
  11 25 1       1.00000000
  11 25 80       0.00000000
  11 26 1       1.00000000
  11 26 80       0.00000000
  11 27 1       1.00000000
  11 27 80       0.00000000
  11 28 1       1.00000000
  11 28 80       0.00000000
  11 29 1       1.00000000
  11 29 80       0.00000000
  11 30 1       1.00000000
  11 30 80       0.00000000
  11 31 1       1.00000000
  11 31 80       0.00000000
  11 32 1       1.00000000
  11 32 80       0.00000000
  11 33 1       1.00000000
  11 33 80       0.00000000
  11 34 1       1.00000000
  11 34 80       0.00000000
  11 35 1       1.00000000
  11 35 80       0.00000000
  11 36 1       1.00000000
  11 36 80       0.00000000
  11 37 1       1.00000000
  11 37 80       0.00000000
  11 38 1       1.00000000
  11 38 80       0.00000000
  11 39 1       1.00000000
  11 39 80       0.00000000
  11 40 1       1.00000000
  11 40 80       0.00000000
  12 1 1       1.00000000
  12 1 80       0.00000000
  12 2 1       1.00000000
  12 2 80       0.00000000
  12 3 1       1.00000000
  12 3 80       0.00000000
  12 4 1       1.00000000
  12 4 80       0.00000000
  12 5 1       1.00000000
  12 5 80       0.00000000
  12 6 1       1.00000000
  12 6 80       0.00000000
  12 7 1       1.00000000
  12 7 80       0.00000000
  12 8 1       1.00000000
  12 8 80       0.00000000
  12 9 1       1.00000000
  12 9 80       0.00000000
  12 10 1       1.00000000
  12 10 80       0.00000000
  12 11 1       1.00000000
  12 11 80       0.00000000
  12 12 1       1.00000000
  12 12 80       0.00000000
  12 13 1       1.00000000
  12 13 80       0.00000000
  12 14 1       1.00000000
  12 14 80       0.00000000
  12 15 1       1.00000000
  12 15 80       0.00000000
  12 16 1       1.00000000
  12 16 80       0.00000000
  12 17 1       1.00000000
  12 17 80       0.00000000
  12 18 1       1.00000000
  12 18 80       0.00000000
  12 19 1       1.00000000
  12 19 80       0.00000000
  12 20 1       1.00000000
  12 20 80       0.00000000
  12 21 1       1.00000000
  12 21 80       0.00000000
  12 22 1       1.00000000
  12 22 80       0.00000000
  12 23 1       1.00000000
  12 23 80       0.00000000
  12 24 1       1.00000000
  12 24 80       0.00000000
  12 25 1       1.00000000
  12 25 80       0.00000000
  12 26 1       1.00000000
  12 26 80       0.00000000
  12 27 1       1.00000000
  12 27 80       0.00000000
  12 28 1       1.00000000
  12 28 80       0.00000000
  12 29 1       1.00000000
  12 29 80       0.00000000
  12 30 1       1.00000000
  12 30 80       0.00000000
  12 31 1       1.00000000
  12 31 80       0.00000000
  12 32 1       1.00000000
  12 32 80       0.00000000
  12 33 1       1.00000000
  12 33 80       0.00000000
  12 34 1       1.00000000
  12 34 80       0.00000000
  12 35 1       1.00000000
  12 35 80       0.00000000
  12 36 1       1.00000000
  12 36 80       0.00000000
  12 37 1       1.00000000
  12 37 80       0.00000000
  12 38 1       1.00000000
  12 38 80       0.00000000
  12 39 1       1.00000000
  12 39 80       0.00000000
  12 40 1       1.00000000
  12 40 80       0.00000000
  13 1 1       1.00000000
  13 1 80       0.00000000
  13 2 1       1.00000000
  13 2 80       0.00000000
  13 3 1       1.00000000
  13 3 80       0.00000000
  13 4 1       1.00000000
  13 4 80       0.00000000
  13 5 1       1.00000000
  13 5 80       0.00000000
  13 6 1       1.00000000
  13 6 80       0.00000000
  13 7 1       1.00000000
  13 7 80       0.00000000
  13 8 1       1.00000000
  13 8 80       0.00000000
  13 9 1       1.00000000
  13 9 80       0.00000000
  13 10 1       1.00000000
  13 10 80       0.00000000
  13 11 1       1.00000000
  13 11 80       0.00000000
  13 12 1       1.00000000
  13 12 80       0.00000000
  13 13 1       1.00000000
  13 13 80       0.00000000
  13 14 1       1.00000000
  13 14 80       0.00000000
  13 15 1       1.00000000
  13 15 80       0.00000000
  13 16 1       1.00000000
  13 16 80       0.00000000
  13 17 1       1.00000000
  13 17 80       0.00000000
  13 18 1       1.00000000
  13 18 80       0.00000000
  13 19 1       1.00000000
  13 19 80       0.00000000
  13 20 1       1.00000000
  13 20 80       0.00000000
  13 21 1       1.00000000
  13 21 80       0.00000000
  13 22 1       1.00000000
  13 22 80       0.00000000
  13 23 1       1.00000000
  13 23 80       0.00000000
  13 24 1       1.00000000
  13 24 80       0.00000000
  13 25 1       1.00000000
  13 25 80       0.00000000
  13 26 1       1.00000000
  13 26 80       0.00000000
  13 27 1       1.00000000
  13 27 80       0.00000000
  13 28 1       1.00000000
  13 28 80       0.00000000
  13 29 1       1.00000000
  13 29 80       0.00000000
  13 30 1       1.00000000
  13 30 80       0.00000000
  13 31 1       1.00000000
  13 31 80       0.00000000
  13 32 1       1.00000000
  13 32 80       0.00000000
  13 33 1       1.00000000
  13 33 80       0.00000000
  13 34 1       1.00000000
  13 34 80       0.00000000
  13 35 1       1.00000000
  13 35 80       0.00000000
  13 36 1       1.00000000
  13 36 80       0.00000000
  13 37 1       1.00000000
  13 37 80       0.00000000
  13 38 1       1.00000000
  13 38 80       0.00000000
  13 39 1       1.00000000
  13 39 80       0.00000000
  13 40 1       1.00000000
  13 40 80       0.00000000
  14 1 1       1.00000000
  14 1 80       0.00000000
  14 2 1       1.00000000
  14 2 80       0.00000000
  14 3 1       1.00000000
  14 3 80       0.00000000
  14 4 1       1.00000000
  14 4 80       0.00000000
  14 5 1       1.00000000
  14 5 80       0.00000000
  14 6 1       1.00000000
  14 6 80       0.00000000
  14 7 1       1.00000000
  14 7 80       0.00000000
  14 8 1       1.00000000
  14 8 80       0.00000000
  14 9 1       1.00000000
  14 9 80       0.00000000
  14 10 1       1.00000000
  14 10 80       0.00000000
  14 11 1       1.00000000
  14 11 80       0.00000000
  14 12 1       1.00000000
  14 12 80       0.00000000
  14 13 1       1.00000000
  14 13 80       0.00000000
  14 14 1       1.00000000
  14 14 80       0.00000000
  14 15 1       1.00000000
  14 15 80       0.00000000
  14 16 1       1.00000000
  14 16 80       0.00000000
  14 17 1       1.00000000
  14 17 80       0.00000000
  14 18 1       1.00000000
  14 18 80       0.00000000
  14 19 1       1.00000000
  14 19 80       0.00000000
  14 20 1       1.00000000
  14 20 80       0.00000000
  14 21 1       1.00000000
  14 21 80       0.00000000
  14 22 1       1.00000000
  14 22 80       0.00000000
  14 23 1       1.00000000
  14 23 80       0.00000000
  14 24 1       1.00000000
  14 24 80       0.00000000
  14 25 1       1.00000000
  14 25 80       0.00000000
  14 26 1       1.00000000
  14 26 80       0.00000000
  14 27 1       1.00000000
  14 27 80       0.00000000
  14 28 1       1.00000000
  14 28 80       0.00000000
  14 29 1       1.00000000
  14 29 80       0.00000000
  14 30 1       1.00000000
  14 30 80       0.00000000
  14 31 1       1.00000000
  14 31 80       0.00000000
  14 32 1       1.00000000
  14 32 80       0.00000000
  14 33 1       1.00000000
  14 33 80       0.00000000
  14 34 1       1.00000000
  14 34 80       0.00000000
  14 35 1       1.00000000
  14 35 80       0.00000000
  14 36 1       1.00000000
  14 36 80       0.00000000
  14 37 1       1.00000000
  14 37 80       0.00000000
  14 38 1       1.00000000
  14 38 80       0.00000000
  14 39 1       1.00000000
  14 39 80       0.00000000
  14 40 1       1.00000000
  14 40 80       0.00000000
  15 1 1       1.00000000
  15 1 80       0.00000000