BEGIN options
END options

BEGIN dimensions
  NLAY  110
  NROW  40
  NCOL  80
END dimensions

BEGIN griddata
  delr
    CONSTANT       0.50000000
  delc
    CONSTANT       0.50000000
  top
    CONSTANT      11.00000000
  botm  LAYERED
    CONSTANT      10.90000000
    CONSTANT      10.80000000
    CONSTANT      10.70000000
    CONSTANT      10.60000000
    CONSTANT      10.50000000
    CONSTANT      10.40000000
    CONSTANT      10.30000000
    CONSTANT      10.20000000
    CONSTANT      10.10000000
    CONSTANT      10.00000000
    CONSTANT       9.90000000
    CONSTANT       9.80000000
    CONSTANT       9.70000000
    CONSTANT       9.60000000
    CONSTANT       9.50000000
    CONSTANT       9.40000000
    CONSTANT       9.30000000
    CONSTANT       9.20000000
    CONSTANT       9.10000000
    CONSTANT       9.00000000
    CONSTANT       8.90000000
    CONSTANT       8.80000000
    CONSTANT       8.70000000
    CONSTANT       8.60000000
    CONSTANT       8.50000000
    CONSTANT       8.40000000
    CONSTANT       8.30000000
    CONSTANT       8.20000000
    CONSTANT       8.10000000
    CONSTANT       8.00000000
    CONSTANT       7.90000000
    CONSTANT       7.80000000
    CONSTANT       7.70000000
    CONSTANT       7.60000000
    CONSTANT       7.50000000
    CONSTANT       7.40000000
    CONSTANT       7.30000000
    CONSTANT       7.20000000
    CONSTANT       7.10000000
    CONSTANT       7.00000000
    CONSTANT       6.90000000
    CONSTANT       6.80000000
    CONSTANT       6.70000000
    CONSTANT       6.60000000
    CONSTANT       6.50000000
    CONSTANT       6.40000000
    CONSTANT       6.30000000
    CONSTANT       6.20000000
    CONSTANT       6.10000000
    CONSTANT       6.00000000
    CONSTANT       5.90000000
    CONSTANT       5.80000000
    CONSTANT       5.70000000
    CONSTANT       5.60000000
    CONSTANT       5.50000000
    CONSTANT       5.40000000
    CONSTANT       5.30000000
    CONSTANT       5.20000000
    CONSTANT       5.10000000
    CONSTANT       5.00000000
    CONSTANT       4.90000000
    CONSTANT       4.80000000
    CONSTANT       4.70000000
    CONSTANT       4.60000000
    CONSTANT       4.50000000
    CONSTANT       4.40000000
    CONSTANT       4.30000000
    CONSTANT       4.20000000
    CONSTANT       4.10000000
    CONSTANT       4.00000000
    CONSTANT       3.90000000
    CONSTANT       3.80000000
    CONSTANT       3.70000000
    CONSTANT       3.60000000
    CONSTANT       3.50000000
    CONSTANT       3.40000000
    CONSTANT       3.30000000
    CONSTANT       3.20000000
    CONSTANT       3.10000000
    CONSTANT       3.00000000
    CONSTANT       2.90000000
    CONSTANT       2.80000000
    CONSTANT       2.70000000
    CONSTANT       2.60000000
    CONSTANT       2.50000000
    CONSTANT       2.40000000
    CONSTANT       2.30000000
    CONSTANT       2.20000000
    CONSTANT       2.10000000
    CONSTANT       2.00000000
    CONSTANT       1.90000000
    CONSTANT       1.80000000
    CONSTANT       1.70000000
    CONSTANT       1.60000000
    CONSTANT       1.50000000
    CONSTANT       1.40000000
    CONSTANT       1.30000000
    CONSTANT       1.20000000
    CONSTANT       1.10000000
    CONSTANT       1.00000000
    CONSTANT       0.90000000
    CONSTANT       0.80000000
    CONSTANT       0.70000000
    CONSTANT       0.60000000
    CONSTANT       0.50000000
    CONSTANT       0.40000000
    CONSTANT       0.30000000
    CONSTANT       0.20000000
    CONSTANT       0.10000000
    CONSTANT       0.00000000
END griddata

