BEGIN options
END options

BEGIN packages
  DIS6  hyvr.dis  dis
  NPF6  hyvr.npf  npf
  CHD6  hyvr.chd  chd_0
  IC6  hyvr.ic  ic
  OC6  hyvr.oc  oc
END packages

