BEGIN options
END options

BEGIN timing
  TDIS6  hyvr.tdis
END timing

BEGIN models
  gwf6  hyvr.nam  hyvr
END models

BEGIN exchanges
END exchanges

BEGIN solutiongroup  1
  MXITER  1
  ims6  hyvr.ims  hyvr
END solutiongroup  1

