# DIS package for  MODFLOW-2005, generated by Flopy.
       110        80        40         1         4         2
  0  0  0  0  0  0  0  0  0  0  0  0  0  0  0  0  0  0  0  0  0  0  0  0  0  0  0  0  0  0  0  0  0  0  0  0  0  0  0  0  0  0  0  0  0  0  0  0  0  0  0  0  0  0  0  0  0  0  0  0  0  0  0  0  0  0  0  0  0  0  0  0  0  0  0  0  0  0  0  0  0  0  0  0  0  0  0  0  0  0  0  0  0  0  0  0  0  0  0  0  0  0  0  0  0  0  0  0  0  0
CONSTANT    5.000000E-01                           #delr                          
CONSTANT    5.000000E-01                           #delc                          
CONSTANT    1.100000E+01                           #model_top                     
CONSTANT    1.090000E+01                           #botm layer 1                  
CONSTANT    1.080000E+01                           #botm layer 2                  
CONSTANT    1.070000E+01                           #botm layer 3                  
CONSTANT    1.060000E+01                           #botm layer 4                  
CONSTANT    1.050000E+01                           #botm layer 5                  
CONSTANT    1.040000E+01                           #botm layer 6                  
CONSTANT    1.030000E+01                           #botm layer 7                  
CONSTANT    1.020000E+01                           #botm layer 8                  
CONSTANT    1.010000E+01                           #botm layer 9                  
CONSTANT    1.000000E+01                           #botm layer 10                 
CONSTANT    9.900000E+00                           #botm layer 11                 
CONSTANT    9.800000E+00                           #botm layer 12                 
CONSTANT    9.700000E+00                           #botm layer 13                 
CONSTANT    9.600000E+00                           #botm layer 14                 
CONSTANT    9.500000E+00                           #botm layer 15                 
CONSTANT    9.400000E+00                           #botm layer 16                 
CONSTANT    9.300000E+00                           #botm layer 17                 
CONSTANT    9.200000E+00                           #botm layer 18                 
CONSTANT    9.100000E+00                           #botm layer 19                 
CONSTANT    9.000000E+00                           #botm layer 20                 
CONSTANT    8.900000E+00                           #botm layer 21                 
CONSTANT    8.800000E+00                           #botm layer 22                 
CONSTANT    8.700000E+00                           #botm layer 23                 
CONSTANT    8.600000E+00                           #botm layer 24                 
CONSTANT    8.500000E+00                           #botm layer 25                 
CONSTANT    8.400000E+00                           #botm layer 26                 
CONSTANT    8.300000E+00                           #botm layer 27                 
CONSTANT    8.200000E+00                           #botm layer 28                 
CONSTANT    8.100000E+00                           #botm layer 29                 
CONSTANT    8.000000E+00                           #botm layer 30                 
CONSTANT    7.900000E+00                           #botm layer 31                 
CONSTANT    7.800000E+00                           #botm layer 32                 
CONSTANT    7.700000E+00                           #botm layer 33                 
CONSTANT    7.600000E+00                           #botm layer 34                 
CONSTANT    7.500000E+00                           #botm layer 35                 
CONSTANT    7.400000E+00                           #botm layer 36                 
CONSTANT    7.300000E+00                           #botm layer 37                 
CONSTANT    7.200000E+00                           #botm layer 38                 
CONSTANT    7.100000E+00                           #botm layer 39                 
CONSTANT    7.000000E+00                           #botm layer 40                 
CONSTANT    6.900000E+00                           #botm layer 41                 
CONSTANT    6.800000E+00                           #botm layer 42                 
CONSTANT    6.700000E+00                           #botm layer 43                 
CONSTANT    6.600000E+00                           #botm layer 44                 
CONSTANT    6.500000E+00                           #botm layer 45                 
CONSTANT    6.400000E+00                           #botm layer 46                 
CONSTANT    6.300000E+00                           #botm layer 47                 
CONSTANT    6.200000E+00                           #botm layer 48                 
CONSTANT    6.100000E+00                           #botm layer 49                 
CONSTANT    6.000000E+00                           #botm layer 50                 
CONSTANT    5.900000E+00                           #botm layer 51                 
CONSTANT    5.800000E+00                           #botm layer 52                 
CONSTANT    5.700000E+00                           #botm layer 53                 
CONSTANT    5.600000E+00                           #botm layer 54                 
CONSTANT    5.500000E+00                           #botm layer 55                 
CONSTANT    5.400000E+00                           #botm layer 56                 
CONSTANT    5.300000E+00                           #botm layer 57                 
CONSTANT    5.200000E+00                           #botm layer 58                 
CONSTANT    5.100000E+00                           #botm layer 59                 
CONSTANT    5.000000E+00                           #botm layer 60                 
CONSTANT    4.900000E+00                           #botm layer 61                 
CONSTANT    4.800000E+00                           #botm layer 62                 
CONSTANT    4.700000E+00                           #botm layer 63                 
CONSTANT    4.600000E+00                           #botm layer 64                 
CONSTANT    4.500000E+00                           #botm layer 65                 
CONSTANT    4.400000E+00                           #botm layer 66                 
CONSTANT    4.300000E+00                           #botm layer 67                 
CONSTANT    4.200000E+00                           #botm layer 68                 
CONSTANT    4.100000E+00                           #botm layer 69                 
CONSTANT    4.000000E+00                           #botm layer 70                 
CONSTANT    3.900000E+00                           #botm layer 71                 
CONSTANT    3.800000E+00                           #botm layer 72                 
CONSTANT    3.700000E+00                           #botm layer 73                 
CONSTANT    3.600000E+00                           #botm layer 74                 
CONSTANT    3.500000E+00                           #botm layer 75                 
CONSTANT    3.400000E+00                           #botm layer 76                 
CONSTANT    3.300000E+00                           #botm layer 77                 
CONSTANT    3.200000E+00                           #botm layer 78                 
CONSTANT    3.100000E+00                           #botm layer 79                 
CONSTANT    3.000000E+00                           #botm layer 80                 
CONSTANT    2.900000E+00                           #botm layer 81                 
CONSTANT    2.800000E+00                           #botm layer 82                 
CONSTANT    2.700000E+00                           #botm layer 83                 
CONSTANT    2.600000E+00                           #botm layer 84                 
CONSTANT    2.500000E+00                           #botm layer 85                 
CONSTANT    2.400000E+00                           #botm layer 86                 
CONSTANT    2.300000E+00                           #botm layer 87                 
CONSTANT    2.200000E+00                           #botm layer 88                 
CONSTANT    2.100000E+00                           #botm layer 89                 
CONSTANT    2.000000E+00                           #botm layer 90                 
CONSTANT    1.900000E+00                           #botm layer 91                 
CONSTANT    1.800000E+00                           #botm layer 92                 
CONSTANT    1.700000E+00                           #botm layer 93                 
CONSTANT    1.600000E+00                           #botm layer 94                 
CONSTANT    1.500000E+00                           #botm layer 95                 
CONSTANT    1.400000E+00                           #botm layer 96                 
CONSTANT    1.300000E+00                           #botm layer 97                 
CONSTANT    1.200000E+00                           #botm layer 98                 
CONSTANT    1.100000E+00                           #botm layer 99                 
CONSTANT    1.000000E+00                           #botm layer 100                
CONSTANT    9.000000E-01                           #botm layer 101                
CONSTANT    8.000000E-01                           #botm layer 102                
CONSTANT    7.000000E-01                           #botm layer 103                
CONSTANT    6.000000E-01                           #botm layer 104                
CONSTANT    5.000000E-01                           #botm layer 105                
CONSTANT    4.000000E-01                           #botm layer 106                
CONSTANT    3.000000E-01                           #botm layer 107                
CONSTANT    2.000000E-01                           #botm layer 108                
CONSTANT    1.000000E-01                           #botm layer 109                
CONSTANT    0.000000E+00                           #botm layer 110                
      1.000000             1  1.000000  SS 
