# Name file for MODFLOW-2005, generated by Flopy version 3.2.9.
#xul:0; yul:40; rotation:0; proj4_str:+init=EPSG:4326; units:meters; lenuni:2; length_multiplier:1.0 ;start_datetime:1-1-1970
LIST               2  /data/data_samuel/Documents/GroundwaterModelling/HyVR/hyvr/testcases/small/MODFLOW/small_hyvr.list
DIS               11  /data/data_samuel/Documents/GroundwaterModelling/HyVR/hyvr/testcases/small/MODFLOW/small_hyvr.dis 
BAS6              13  /data/data_samuel/Documents/GroundwaterModelling/HyVR/hyvr/testcases/small/MODFLOW/small_hyvr.bas 
LPF               15  /data/data_samuel/Documents/GroundwaterModelling/HyVR/hyvr/testcases/small/MODFLOW/small_hyvr.lpf 
OC                14  /data/data_samuel/Documents/GroundwaterModelling/HyVR/hyvr/testcases/small/MODFLOW/small_hyvr.oc 
PCG               27  /data/data_samuel/Documents/GroundwaterModelling/HyVR/hyvr/testcases/small/MODFLOW/small_hyvr.pcg 
DATA(BINARY)      51  /data/data_samuel/Documents/GroundwaterModelling/HyVR/hyvr/testcases/small/MODFLOW/small_hyvr.hds REPLACE
